Version 4
SHEET 1 880 680
WIRE 336 -32 48 -32
WIRE 544 -32 416 -32
WIRE 672 -32 608 -32
WIRE 672 96 672 -32
WIRE 48 144 48 -32
WIRE 48 320 48 224
WIRE 224 320 48 320
WIRE 672 320 672 176
WIRE 672 320 224 320
WIRE 224 336 224 320
FLAG 224 336 0
SYMBOL voltage 48 128 R0
SYMATTR InstName V1
SYMATTR Value Sine() AC 1
SYMBOL ind 320 -16 R270
WINDOW 0 32 56 VTop 2
WINDOW 3 5 56 VBottom 2
SYMATTR InstName L1
SYMATTR Value 1.025mH
SYMBOL cap 608 -48 R90
WINDOW 0 0 32 VBottom 2
WINDOW 3 32 32 VTop 2
SYMATTR InstName C1
SYMATTR Value 56nF
SYMBOL res 656 80 R0
SYMATTR InstName R1
SYMATTR Value 6
TEXT 88 384 Left 2 !.ac dec 1000 10000 100000
